49
Lattice="8.605220826463434 0.0 0.0 4.302610413231717 7.452339840892254 0.0 0.0 0.0 23.36817784391394" Properties=species:S:1:pos:R:3 pbc="T T T"
Pt       8.60522083       1.65607552       7.00000000 
Pt       2.86840694       1.65607552       7.00000000 
Pt       5.73681388       1.65607552       7.00000000 
Pt      10.03942430       4.14018880       7.00000000 
Pt       4.30261041       4.14018880       7.00000000 
Pt       7.17101736       4.14018880       7.00000000 
Pt      11.47362777       6.62430208       7.00000000 
Pt       5.73681388       6.62430208       7.00000000 
Pt       8.60522083       6.62430208       7.00000000 
Pt       0.00000000       0.00000000       9.34204446 
Pt       2.86840694       0.00000000       9.34204446 
Pt       5.73681388       0.00000000       9.34204446 
Pt       1.43420347       2.48411328       9.34204446 
Pt       4.30261041       2.48411328       9.34204446 
Pt       7.17101736       2.48411328       9.34204446 
Pt       2.86840694       4.96822656       9.34204446 
Pt       5.73681388       4.96822656       9.34204446 
Pt       8.60522083       4.96822656       9.34204446 
Pt       1.43107816       0.82623336      11.58677588 
Pt       4.30261041       0.82832897      11.57166937 
Pt       7.17414267       0.82623336      11.58677588 
Pt       2.86865914       3.31200544      11.57166937 
Pt       5.73656169       3.31200544      11.57166937 
Pt       8.60522083       3.30711243      11.57049025 
Pt       4.30261041       5.79987312      11.58677588 
Pt       7.16665379       5.79878362      11.57049025 
Pt      10.04378786       5.79878362      11.57049025 
Pt       0.00000000       0.00000000      16.41446289 
Pt       7.19505216       7.45201566      16.25013351 
Pt      10.01538950       7.45201566      16.25013351 
Pt      10.05116095       2.50509012      16.25013351 
Pt       4.30261041       2.48411328      16.24930874 
Pt       7.15928070       2.50509012      16.25013351 
Pt      11.46132962       4.94757390      16.25013351 
Pt       5.74911203       4.94757390      16.25013351 
Pt       8.60522083       4.96822656      16.24747343 
Ag       8.60522083       1.65071653      13.94172791 
Ag       2.86858602       1.65617891      13.91576335 
Ag       5.73663481       1.65617891      13.91576335 
Ag      10.03652738       4.14186133      13.90557646 
Ag       4.30261041       4.13998202      13.91576335 
Ag       7.17391427       4.14186133      13.90557646 
Ag      11.47826879       6.62698158      13.94172791 
Ag       5.73217286       6.62698158      13.94172791 
Ag       8.60522083       6.62095701      13.90557646 
C       0.00000000       0.00000000      18.47473657 
H       4.30261041       6.40462763      18.79915353 
H       0.90734493       0.52385610      18.79915353 
H       7.69787589       0.52385610      18.79915353 
