49
Lattice="8.520855916400066 0.0 0.0 4.260427958200033 7.37927768558939 0.0 0.0 0.0 23.276332963091257" Properties=species:S:1:pos:R:3 pbc="T T T"
Pt       8.52085592       1.63983949       7.00000000 
Pt       2.84028531       1.63983949       7.00000000 
Pt       5.68057061       1.63983949       7.00000000 
Pt       9.94099857       4.09959871       7.00000000 
Pt       4.26042796       4.09959871       7.00000000 
Pt       7.10071326       4.09959871       7.00000000 
Pt      11.36114122       6.55935794       7.00000000 
Pt       5.68057061       6.55935794       7.00000000 
Pt       8.52085592       6.55935794       7.00000000 
Pt       0.00000000       0.00000000       9.31908324 
Pt       2.84028531       0.00000000       9.31908324 
Pt       5.68057061       0.00000000       9.31908324 
Pt       1.42014265       2.45975923       9.31908324 
Pt       4.26042796       2.45975923       9.31908324 
Pt       7.10071326       2.45975923       9.31908324 
Pt       2.84028531       4.91951846       9.31908324 
Pt       5.68057061       4.91951846       9.31908324 
Pt       8.52085592       4.91951846       9.31908324 
Pt       1.42362399       0.82192969      11.58821248 
Pt       4.26042796       0.81731625      11.59907112 
Pt       7.09723193       0.82192969      11.58821248 
Pt       2.83803061       3.28098072      11.59907112 
Pt       5.68282530       3.28098072      11.59907112 
Pt       8.52085592       3.28249204      11.60740926 
Pt       4.26042796       5.73541830      11.58821248 
Pt       7.10314945       5.73803167      11.60740926 
Pt       9.93856238       5.73803167      11.60740926 
Pt       0.00000000       0.00000000      16.04528665 
Pt       7.10944930       7.37359127      15.90758175 
Pt       9.93226253       7.37359127      15.90758175 
Pt       9.94044200       2.47016807      15.90758175 
Pt       4.26042796       2.45975923      15.90425880 
Pt       7.10126983       2.47016807      15.90758175 
Pt      11.35184862       4.91479604      15.90758175 
Pt       5.68986321       4.91479604      15.90758175 
Pt       8.52085592       4.91951846      15.91751842 
Os       8.52085592       1.58096508      13.73736836 
Os       2.82663387       1.63195782      13.72239598 
Os       5.69422205       1.63195782      13.72239598 
Os       9.94974478       4.09454909      13.73825964 
Os       4.26042796       4.11536204      13.72239598 
Os       7.09196705       4.09454909      13.73825964 
Os      11.41212796       6.58879515      13.73736836 
Os       5.62958388       6.58879515      13.73736836 
Os       8.52085592       6.56945720      13.73825964 
C       0.00000000       0.00000000      18.15185177 
H       4.26042796       6.34195929      18.50757805 
H       0.89834363       0.51865920      18.50757805 
H       7.62251229       0.51865920      18.50757805 
