47
Lattice="8.520855916400066 0.0 0.0 4.260427958200033 7.37927768558939 0.0 0.0 0.0 23.276332963091257" Properties=species:S:1:pos:R:3 pbc="T T T"
Pt       8.52085592       1.63983949       7.00000000 
Pt       2.84028531       1.63983949       7.00000000 
Pt       5.68057061       1.63983949       7.00000000 
Pt       9.94099857       4.09959871       7.00000000 
Pt       4.26042796       4.09959871       7.00000000 
Pt       7.10071326       4.09959871       7.00000000 
Pt      11.36114122       6.55935794       7.00000000 
Pt       5.68057061       6.55935794       7.00000000 
Pt       8.52085592       6.55935794       7.00000000 
Pt       0.00000000       0.00000000       9.31908324 
Pt       2.84028531       0.00000000       9.31908324 
Pt       5.68057061       0.00000000       9.31908324 
Pt       1.42014265       2.45975923       9.31908324 
Pt       4.26042796       2.45975923       9.31908324 
Pt       7.10071326       2.45975923       9.31908324 
Pt       2.84028531       4.91951846       9.31908324 
Pt       5.68057061       4.91951846       9.31908324 
Pt       8.52085592       4.91951846       9.31908324 
Pt       1.42014265       0.81991974      11.61178696 
Pt       4.25517922       0.82007407      11.59273895 
Pt       7.10596200       0.82007407      11.59273895 
Pt       2.83779459       3.27505627      11.59273895 
Pt       5.68057061       3.27967897      11.58314251 
Pt       8.52334663       3.27505627      11.59273895 
Pt       4.26318598       5.74390657      11.59273895 
Pt       7.09795524       5.74390657      11.59273895 
Pt       9.94099857       5.73943820      11.57250024 
Pt      12.71156866       7.33902759      16.41246266 
Pt       7.17042848       7.33902759      16.41246266 
Pt       9.94099857       7.37887348      16.32753557 
Pt       9.94099857       2.54025942      16.41246266 
Pt       4.31316179       2.49020512      16.32484264 
Pt       7.04797943       2.49020512      16.32484264 
Pt      11.36079117       4.91972056      16.32753557 
Pt       5.68057061       4.85862667      16.32484264 
Pt       8.52120597       4.91972056      16.32753557 
Ag       8.51851125       1.64119318      13.99580832 
Ag       2.84262998       1.64119318      13.99580832 
Ag       5.68057061       1.63734617      13.94931629 
Ag       9.94099857       4.10570411      13.95211841 
Ag       4.25826869       4.10084537      13.94931629 
Ag       7.10287254       4.10084537      13.94931629 
Ag      11.35585380       6.55630525      13.95211841 
Ag       5.68057061       6.55665055      13.99580832 
Ag       8.52614334       6.55630525      13.95211841 
C       1.42014265       0.81991974      17.40537653 
H       1.42014265       0.81991974      18.50899742 
