47
Lattice="8.605220826463434 0.0 0.0 4.302610413231717 7.452339840892254 0.0 0.0 0.0 23.36817784391394" Properties=species:S:1:pos:R:3 pbc="T T T"
Pt       8.60522083       1.65607552       7.00000000 
Pt       2.86840694       1.65607552       7.00000000 
Pt       5.73681388       1.65607552       7.00000000 
Pt      10.03942430       4.14018880       7.00000000 
Pt       4.30261041       4.14018880       7.00000000 
Pt       7.17101736       4.14018880       7.00000000 
Pt      11.47362777       6.62430208       7.00000000 
Pt       5.73681388       6.62430208       7.00000000 
Pt       8.60522083       6.62430208       7.00000000 
Pt       0.00000000       0.00000000       9.34204446 
Pt       2.86840694       0.00000000       9.34204446 
Pt       5.73681388       0.00000000       9.34204446 
Pt       1.43420347       2.48411328       9.34204446 
Pt       4.30261041       2.48411328       9.34204446 
Pt       7.17101736       2.48411328       9.34204446 
Pt       2.86840694       4.96822656       9.34204446 
Pt       5.73681388       4.96822656       9.34204446 
Pt       8.60522083       4.96822656       9.34204446 
Pt       1.43420347       0.82803776      11.55527111 
Pt       4.30173118       0.82818490      11.56776166 
Pt       7.17189659       0.82818490      11.56776166 
Pt       2.86809476       3.31131603      11.56776166 
Pt       5.73681388       3.31215104      11.57143900 
Pt       8.60553301       3.31131603      11.56776166 
Pt       4.30317746       5.79695219      11.56776166 
Pt       7.17045031       5.79695219      11.56776166 
Pt      10.03942430       5.79626432      11.51549174 
Pt      12.87027760       7.43065824      16.02346245 
Pt       7.20857100       7.43065824      16.02346245 
Pt      10.03942430       7.44473456      15.88744708 
Pt      10.03942430       2.52747649      16.02346245 
Pt       4.32365177       2.49626152      15.89342131 
Pt       7.14997600       2.49626152      15.89342131 
Pt      11.46704140       4.97202920      15.88744708 
Pt       5.73681388       4.94393009      15.89342131 
Pt       8.61180720       4.97202920      15.88744708 
Ir       8.62502589       1.64464106      13.70788628 
Ir       2.84860187       1.64464106      13.70788628 
Ir       5.73681388       1.64574791      13.71066639 
Ir      10.03942430       4.14868336      13.69904199 
Ir       4.29366644       4.14535260      13.71066639 
Ir       7.17996133       4.14535260      13.71066639 
Ir      11.46627126       6.62005480      13.69904199 
Ir       5.73681388       6.64717100      13.70788628 
Ir       8.61257733       6.62005480      13.69904199 
C       1.43420347       0.82803776      17.08713792 
H       1.43420347       0.82803776      18.18787456 
