48
Lattice="8.436491006336698 0.0 0.0 4.218245503168349 7.306215530286524 0.0 0.0 0.0 23.184488082268565" Properties=species:S:1:pos:R:3 pbc="T T T"
Pt       8.43649101       1.62360345       7.00000000 
Pt       2.81216367       1.62360345       7.00000000 
Pt       5.62432734       1.62360345       7.00000000 
Pt       9.84257284       4.05900863       7.00000000 
Pt       4.21824550       4.05900863       7.00000000 
Pt       7.03040917       4.05900863       7.00000000 
Pt      11.24865468       6.49441380       7.00000000 
Pt       5.62432734       6.49441380       7.00000000 
Pt       8.43649101       6.49441380       7.00000000 
Pt       0.00000000       0.00000000       9.29612202 
Pt       2.81216367       0.00000000       9.29612202 
Pt       5.62432734       0.00000000       9.29612202 
Pt       1.40608183       2.43540518       9.29612202 
Pt       4.21824550       2.43540518       9.29612202 
Pt       7.03040917       2.43540518       9.29612202 
Pt       2.81216367       4.87081035       9.29612202 
Pt       5.62432734       4.87081035       9.29612202 
Pt       8.43649101       4.87081035       9.29612202 
Pt       1.40608183       0.80961349      11.61767370 
Pt       4.21623303       0.80896335      11.61151593 
Pt       7.03242165       0.80896335      11.61151593 
Pt       2.81326712       3.24258080      11.58700625 
Pt       5.62432734       3.24427385      11.58958753 
Pt       8.43538756       3.24258080      11.58700625 
Pt       4.21933199       5.68925673      11.60675155 
Pt       7.02932268       5.68925673      11.60675155 
Pt       9.84257284       5.68833549      11.58931390 
Pt      12.63076085       7.30331037      16.52681046 
Pt       7.05438483       7.30331037      16.52681046 
Pt       9.84257284       7.30556769      16.40695469 
Pt       9.84257284       2.51651925      16.33770598 
Pt       4.22174840       2.43867490      16.37434885 
Pt       7.02690628       2.43867490      16.37434885 
Pt      11.24473136       4.86610812      16.36138653 
Pt       5.62432734       4.78615975      16.33802520 
Pt       8.44041432       4.86610812      16.36138653 
Ag       8.43408028       1.61555571      14.00900328 
Ag       2.81457440       1.61555571      14.00900328 
Ag       5.62432734       1.62083102      13.99812020 
Ag       9.84257284       4.06166297      13.95139614 
Ag       4.21349751       4.05635337      13.96606354 
Ag       7.03515717       4.05635337      13.96606354 
Ag      11.24610759       6.49569127      14.01270201 
Ag       5.62432734       6.49751149      14.03227581 
Ag       8.43903809       6.49569127      14.01270201 
C       1.40608183       0.00833775      17.97009233 
H       5.62432734       6.40178545      18.58523419 
H       1.40608183       0.92539729      18.57953673 
