47
Lattice="8.520855916400066 0.0 0.0 4.260427958200033 7.37927768558939 0.0 0.0 0.0 23.276332963091257" Properties=species:S:1:pos:R:3 pbc="T T T"
Pt       8.52085592       1.63983949       7.00000000 
Pt       2.84028531       1.63983949       7.00000000 
Pt       5.68057061       1.63983949       7.00000000 
Pt       9.94099857       4.09959871       7.00000000 
Pt       4.26042796       4.09959871       7.00000000 
Pt       7.10071326       4.09959871       7.00000000 
Pt      11.36114122       6.55935794       7.00000000 
Pt       5.68057061       6.55935794       7.00000000 
Pt       8.52085592       6.55935794       7.00000000 
Pt       0.00000000       0.00000000       9.31908324 
Pt       2.84028531       0.00000000       9.31908324 
Pt       5.68057061       0.00000000       9.31908324 
Pt       1.42014265       2.45975923       9.31908324 
Pt       4.26042796       2.45975923       9.31908324 
Pt       7.10071326       2.45975923       9.31908324 
Pt       2.84028531       4.91951846       9.31908324 
Pt       5.68057061       4.91951846       9.31908324 
Pt       8.52085592       4.91951846       9.31908324 
Pt       1.42014265       0.81991974      11.63095827 
Pt       4.25533497       0.81950422      11.60693825 
Pt       7.10580625       0.81950422      11.60693825 
Pt       2.83737896       3.27547608      11.60693825 
Pt       5.68057061       3.27967897      11.60084275 
Pt       8.52376226       3.27547608      11.60693825 
Pt       4.26261460       5.74405662      11.60693825 
Pt       7.09852662       5.74405662      11.60693825 
Pt       9.94099857       5.73943820      11.56578647 
Pt      12.71327526       7.34001289      15.83207052 
Pt       7.16872188       7.34001289      15.83207052 
Pt       9.94099857       7.37887847      15.74099804 
Pt       9.94099857       2.53828882      15.83207052 
Pt       4.30489849       2.48543430      15.74931578 
Pt       7.05624273       2.48543430      15.74931578 
Pt      11.36079549       4.91971807      15.74099804 
Pt       5.68057061       4.86816831      15.74931578 
Pt       8.52120165       4.91971807      15.74099804 
Cu       8.50669937       1.64801277      13.70343179 
Cu       2.85444185       1.64801277      13.70343179 
Cu       5.68057061       1.63445932      13.66845276 
Cu       9.94099857       4.13784754      13.66092713 
Cu       4.25576860       4.10228880      13.66845276 
Cu       7.10537263       4.10228880      13.66845276 
Cu      11.32801677       6.54023353      13.66092713 
Cu       5.68057061       6.54301137      13.70343179 
Cu       8.55398037       6.54023353      13.66092713 
C       1.42014265       0.81991974      16.83708940 
H       1.42014265       0.81991974      17.94055575 
