47
Lattice="8.605220826463434 0.0 0.0 4.302610413231717 7.452339840892254 0.0 0.0 0.0 23.36817784391394" Properties=species:S:1:pos:R:3 pbc="T T T"
Pt       8.60522083       1.65607552       7.00000000 
Pt       2.86840694       1.65607552       7.00000000 
Pt       5.73681388       1.65607552       7.00000000 
Pt      10.03942430       4.14018880       7.00000000 
Pt       4.30261041       4.14018880       7.00000000 
Pt       7.17101736       4.14018880       7.00000000 
Pt      11.47362777       6.62430208       7.00000000 
Pt       5.73681388       6.62430208       7.00000000 
Pt       8.60522083       6.62430208       7.00000000 
Pt       0.00000000       0.00000000       9.34204446 
Pt       2.86840694       0.00000000       9.34204446 
Pt       5.73681388       0.00000000       9.34204446 
Pt       1.43420347       2.48411328       9.34204446 
Pt       4.30261041       2.48411328       9.34204446 
Pt       7.17101736       2.48411328       9.34204446 
Pt       2.86840694       4.96822656       9.34204446 
Pt       5.73681388       4.96822656       9.34204446 
Pt       8.60522083       4.96822656       9.34204446 
Pt       1.43420347       0.82803776      11.61597181 
Pt       4.29794627       0.82889441      11.60260931 
Pt       7.17568150       0.82889441      11.60260931 
Pt       2.86681675       3.30768345      11.60260931 
Pt       5.73681388       3.31215104      11.59550707 
Pt       8.60681102       3.30768345      11.60260931 
Pt       4.30568436       5.79987527      11.60260931 
Pt       7.16794341       5.79987527      11.60260931 
Pt      10.03942430       5.79626432      11.54474671 
Pt      12.82865809       7.40662920      15.68428580 
Pt       7.25019050       7.40662920      15.68428580 
Pt      10.03942430       7.44950528      15.56882588 
Pt      10.03942430       2.57553456      15.68428580 
Pt       4.33733280       2.50416026      15.58357976 
Pt       7.13629497       2.50416026      15.58357976 
Pt      11.47117297       4.96964384      15.56882588 
Pt       5.73681388       4.92813260      15.58357976 
Pt       8.60767563       4.96964384      15.56882588 
Ni       8.60413817       1.65670059      13.60023554 
Ni       2.86948959       1.65670059      13.60023554 
Ni       5.73681388       1.65498159      13.57258402 
Ni      10.03942430       4.18299060      13.55062571 
Ni       4.30166304       4.14073577      13.57258402 
Ni       7.17196473       4.14073577      13.57258402 
Ni      11.43656033       6.60290118      13.55062571 
Ni       5.73681388       6.62305194      13.60023554 
Ni       8.64228827       6.60290118      13.55062571 
C       1.43420347       0.82803776      16.64936702 
H       1.43420347       0.82803776      17.75411153 
