47
Lattice="8.267761186209963 0.0 0.0 4.133880593104982 7.160091219680793 0.0 0.0 0.0 23.000798320623197" Properties=species:S:1:pos:R:3 pbc="T T T"
Pt       8.26776119       1.59113138       7.00000000 
Pt       2.75592040       1.59113138       7.00000000 
Pt       5.51184079       1.59113138       7.00000000 
Pt       9.64572138       3.97782846       7.00000000 
Pt       4.13388059       3.97782846       7.00000000 
Pt       6.88980099       3.97782846       7.00000000 
Pt      11.02368158       6.36452553       7.00000000 
Pt       5.51184079       6.36452553       7.00000000 
Pt       8.26776119       6.36452553       7.00000000 
Pt       0.00000000       0.00000000       9.25019958 
Pt       2.75592040       0.00000000       9.25019958 
Pt       5.51184079       0.00000000       9.25019958 
Pt       1.37796020       2.38669707       9.25019958 
Pt       4.13388059       2.38669707       9.25019958 
Pt       6.88980099       2.38669707       9.25019958 
Pt       2.75592040       4.77339415       9.25019958 
Pt       5.51184079       4.77339415       9.25019958 
Pt       8.26776119       4.77339415       9.25019958 
Pt       1.37796020       0.79556569      11.63975105 
Pt       4.13103212       0.79518980      11.61727926 
Pt       6.89264946       0.79518980      11.61727926 
Pt       2.75417063       3.17998386      11.61727926 
Pt       5.51184079       3.18226276      11.60506542 
Pt       8.26951095       3.17998386      11.61727926 
Pt       4.13497929       5.57161463      11.61727926 
Pt       6.88870229       5.57161463      11.61727926 
Pt       9.64572138       5.56895984      11.60044648 
Pt      12.34271704       7.12607101      16.57713179 
Pt       6.94872573       7.12607101      16.57713179 
Pt       5.51184079       0.00269732      16.47355866 
Pt       9.64572138       2.45473750      16.57713179 
Pt       4.16990384       2.40749511      16.46071082 
Pt       6.85377774       2.40749511      16.46071082 
Pt       2.75825634       4.77204549      16.47355866 
Pt       5.51184079       4.73179808      16.46071082 
Pt       8.26542524       4.77204549      16.47355866 
Ag       8.26751738       1.59127215      14.07516679 
Ag       2.75616420       1.59127215      14.07516679 
Ag       5.51184079       1.58798727      14.03293468 
Ag       9.64572138       3.98101158      14.04336035 
Ag       4.13115771       3.97940051      14.03293468 
Ag       6.89252387       3.97940051      14.03293468 
Ag      11.02092491       6.36293396      14.04336035 
Ag       5.51184079       6.36424400      14.07516679 
Ag       8.27051786       6.36293396      14.04336035 
C       1.37796020       0.79556569      17.65822370 
H       1.37796020       0.79556569      18.75821342 
