48
Lattice="8.267761186209963 0.0 0.0 4.133880593104982 7.160091219680793 0.0 0.0 0.0 23.000798320623197" Properties=species:S:1:pos:R:3 pbc="T T T"
Pt       8.26776119       1.59113138       7.00000000 
Pt       2.75592040       1.59113138       7.00000000 
Pt       5.51184079       1.59113138       7.00000000 
Pt       9.64572138       3.97782846       7.00000000 
Pt       4.13388059       3.97782846       7.00000000 
Pt       6.88980099       3.97782846       7.00000000 
Pt      11.02368158       6.36452553       7.00000000 
Pt       5.51184079       6.36452553       7.00000000 
Pt       8.26776119       6.36452553       7.00000000 
Pt       0.00000000       0.00000000       9.25019958 
Pt       2.75592040       0.00000000       9.25019958 
Pt       5.51184079       0.00000000       9.25019958 
Pt       1.37796020       2.38669707       9.25019958 
Pt       4.13388059       2.38669707       9.25019958 
Pt       6.88980099       2.38669707       9.25019958 
Pt       2.75592040       4.77339415       9.25019958 
Pt       5.51184079       4.77339415       9.25019958 
Pt       8.26776119       4.77339415       9.25019958 
Pt       1.37796020       0.79571543      11.63231745 
Pt       4.13305541       0.79466874      11.62649295 
Pt       6.89062618       0.79466874      11.62649295 
Pt       2.75664308       3.18185083      11.60097113 
Pt       5.51184079       3.18226339      11.60604261 
Pt       8.26703850       3.18185083      11.60097113 
Pt       4.13448048       5.57442842      11.62349933 
Pt       6.88920110       5.57442842      11.62349933 
Pt       9.64572138       5.57420809      11.60619919 
Pt      12.38003551       7.15089201      16.64719531 
Pt       6.91140726       7.15089201      16.64719531 
Pt       9.64572138       7.15305042      16.50287000 
Pt       9.64572138       2.44034329      16.42493603 
Pt       4.13502259       2.38145753      16.46746878 
Pt       6.88865899       2.38145753      16.46746878 
Pt       2.75415295       4.76276642      16.45525744 
Pt       5.51184079       4.70284998      16.43474919 
Pt       8.26952864       4.76276642      16.45525744 
Ag       8.26480755       1.58676255      14.05725050 
Ag       2.75887403       1.58676255      14.05725050 
Ag       5.51184079       1.58974445      14.05320557 
Ag       9.64572138       3.98122028      14.00741917 
Ag       4.13145187       3.97923975      14.02604613 
Ag       6.89222971       3.97923975      14.02604613 
Ag      11.02219776       6.36796991      14.06970785 
Ag       5.51184079       6.37176545      14.08887781 
Ag       8.26924501       6.36796991      14.06970785 
C       1.37796020       0.00491894      18.12093757 
H       5.51184079       6.25281601      18.73677118 
H       1.37796020       0.92282547      18.72604780 
