49
Lattice="8.436491006336698 0.0 0.0 4.218245503168349 7.306215530286524 0.0 0.0 0.0 23.184488082268565" Properties=species:S:1:pos:R:3 pbc="T T T"
Pt       8.43649101       1.62360345       7.00000000 
Pt       2.81216367       1.62360345       7.00000000 
Pt       5.62432734       1.62360345       7.00000000 
Pt       9.84257284       4.05900863       7.00000000 
Pt       4.21824550       4.05900863       7.00000000 
Pt       7.03040917       4.05900863       7.00000000 
Pt      11.24865468       6.49441380       7.00000000 
Pt       5.62432734       6.49441380       7.00000000 
Pt       8.43649101       6.49441380       7.00000000 
Pt       0.00000000       0.00000000       9.29612202 
Pt       2.81216367       0.00000000       9.29612202 
Pt       5.62432734       0.00000000       9.29612202 
Pt       1.40608183       2.43540518       9.29612202 
Pt       4.21824550       2.43540518       9.29612202 
Pt       7.03040917       2.43540518       9.29612202 
Pt       2.81216367       4.87081035       9.29612202 
Pt       5.62432734       4.87081035       9.29612202 
Pt       8.43649101       4.87081035       9.29612202 
Pt       1.40752188       0.81263314      11.62267370 
Pt       4.21824550       0.81034560      11.62314284 
Pt       7.02896912       0.81263314      11.62267370 
Pt       2.81090262       3.24793497      11.62314284 
Pt       5.62558838       3.24793497      11.62314284 
Pt       8.43649101       3.24356799      11.64125569 
Pt       4.21824550       5.68094925      11.62267370 
Pt       7.02725778       5.68443153      11.64125569 
Pt       9.84572423       5.68443153      11.64125569 
Pt       0.00000000       0.00000000      15.87319388 
Pt       7.03974899       7.30343386      15.70389571 
Pt       9.83323302       7.30343386      15.70389571 
Pt       9.84483375       2.44488453      15.70389571 
Pt       4.21824550       2.43540518      15.70476416 
Pt       7.02814826       2.44488453      15.70389571 
Pt      11.24157577       4.86411267      15.70389571 
Pt       5.63140625       4.86411267      15.70389571 
Pt       8.43649101       4.87081035      15.70016694 
Co       8.43649101       1.52398279      13.68796990 
Co       2.80634581       1.62024451      13.66374577 
Co       5.63014519       1.62024451      13.66374577 
Co       9.85175222       4.05370891      13.66727395 
Co       4.21824550       4.06572651      13.66374577 
Co       7.02122979       4.05370891      13.66727395 
Co      11.33492870       6.54422414      13.68796990 
Co       5.53805331       6.54422414      13.68796990 
Co       8.43649101       6.50501324      13.66727395 
C       0.00000000       0.00000000      17.98547657 
H       4.21824550       6.26632156      18.33245671 
H       0.90057414       0.51994699      18.33245671 
H       7.53591686       0.51994699      18.33245671 
