49
Lattice="8.436491006336698 0.0 0.0 4.218245503168349 7.306215530286524 0.0 0.0 0.0 23.184488082268565" Properties=species:S:1:pos:R:3 pbc="T T T"
Pt       8.43649101       1.62360345       7.00000000 
Pt       2.81216367       1.62360345       7.00000000 
Pt       5.62432734       1.62360345       7.00000000 
Pt       9.84257284       4.05900863       7.00000000 
Pt       4.21824550       4.05900863       7.00000000 
Pt       7.03040917       4.05900863       7.00000000 
Pt      11.24865468       6.49441380       7.00000000 
Pt       5.62432734       6.49441380       7.00000000 
Pt       8.43649101       6.49441380       7.00000000 
Pt       0.00000000       0.00000000       9.29612202 
Pt       2.81216367       0.00000000       9.29612202 
Pt       5.62432734       0.00000000       9.29612202 
Pt       1.40608183       2.43540518       9.29612202 
Pt       4.21824550       2.43540518       9.29612202 
Pt       7.03040917       2.43540518       9.29612202 
Pt       2.81216367       4.87081035       9.29612202 
Pt       5.62432734       4.87081035       9.29612202 
Pt       8.43649101       4.87081035       9.29612202 
Pt       1.40144835       0.80912658      11.59917986 
Pt       4.21824550       0.81240520      11.57710278 
Pt       7.03504266       0.80912658      11.59917986 
Pt       2.81268630       3.24690516      11.57710278 
Pt       5.62380471       3.24690516      11.57710278 
Pt       8.43649101       3.24247631      11.57793828 
Pt       4.21824550       5.68796237      11.59917986 
Pt       7.02631236       5.68497737      11.57793828 
Pt       9.84666965       5.68497737      11.57793828 
Pt       0.00000000       0.00000000      16.61036302 
Pt       2.82787352       0.00104449      16.38925894 
Pt       5.60861749       0.00104449      16.38925894 
Pt       1.41484131       2.44848806      16.38925894 
Pt       4.21824550       2.43540518      16.38136161 
Pt       7.02164969       2.44848806      16.38925894 
Pt       2.80521330       4.85668298      16.38925894 
Pt       5.63127770       4.85668298      16.38925894 
Pt       8.43649101       4.87081035      16.37940978 
Au       8.43649101       1.61573730      14.02550282 
Au       2.81099666       1.62292968      13.97779717 
Au       5.62549434       1.62292968      13.97779717 
Au       9.84101201       4.05990978      13.96375872 
Au       4.21824550       4.06035617      13.97779717 
Au       7.03197001       4.05990978      13.96375872 
Au      11.25546696       6.49834688      14.02550282 
Au       5.61751505       6.49834688      14.02550282 
Au       8.43649101       6.49261151      13.96375872 
C       0.00000000       0.00000000      18.66887104 
H       4.21824550       6.26139818      19.00171173 
H       0.90483791       0.52240868      19.00171173 
H       7.53165309       0.52240868      19.00171173 
