49
Lattice="8.35212609627333 0.0 0.0 4.176063048136665 7.233153374983659 0.0 0.0 0.0 23.09264320144588" Properties=species:S:1:pos:R:3 pbc="T T T"
Pt       8.35212610       1.60736742       7.00000000 
Pt       2.78404203       1.60736742       7.00000000 
Pt       5.56808406       1.60736742       7.00000000 
Pt       9.74414711       4.01841854       7.00000000 
Pt       4.17606305       4.01841854       7.00000000 
Pt       6.96010508       4.01841854       7.00000000 
Pt      11.13616813       6.42946967       7.00000000 
Pt       5.56808406       6.42946967       7.00000000 
Pt       8.35212610       6.42946967       7.00000000 
Pt       0.00000000       0.00000000       9.27316080 
Pt       2.78404203       0.00000000       9.27316080 
Pt       5.56808406       0.00000000       9.27316080 
Pt       1.39202102       2.41105112       9.27316080 
Pt       4.17606305       2.41105112       9.27316080 
Pt       6.96010508       2.41105112       9.27316080 
Pt       2.78404203       4.82210225       9.27316080 
Pt       5.56808406       4.82210225       9.27316080 
Pt       8.35212610       4.82210225       9.27316080 
Pt       1.38666766       0.80059295      11.58747006 
Pt       4.17606305       0.80408255      11.56361230 
Pt       6.96545843       0.80059295      11.58747006 
Pt       2.78438744       3.21453541      11.56361230 
Pt       5.56773866       3.21453541      11.56361230 
Pt       8.35212610       3.21368080      11.56027608 
Pt       4.17606305       5.63196748      11.58747006 
Pt       6.95919226       5.62631297      11.56027608 
Pt       9.74505993       5.62631297      11.56027608 
Pt       8.35212610       1.59198087      13.90629877 
Pt       2.78365907       1.60714631      13.86058560 
Pt       5.56846703       1.60714631      13.86058560 
Pt       9.74305697       4.01904793      13.84902336 
Pt       4.17606305       4.01886075      13.86058560 
Pt       6.96119522       4.01904793      13.84902336 
Pt      11.14949327       6.43716294      13.90629877 
Pt       5.55475893       6.43716294      13.90629877 
Pt       8.35212610       6.42821088      13.84902336 
Pt       0.00000000       0.00000000      16.42008244 
Pt       6.96716790       7.23224863      16.18804557 
Pt       9.73708429       7.23224863      16.18804557 
Pt       9.74689499       2.41762008      16.18804557 
Pt       4.17606305       2.41105112      16.18666827 
Pt       6.95735721       2.41762008      16.18804557 
Pt      11.13185318       4.81643804      16.18804557 
Pt       5.57239901       4.81643804      16.18804557 
Pt       8.35212610       4.82210225      16.18296605 
C       0.00000000       0.00000000      18.48757844 
H       4.17606305       6.19042337      18.82689179 
H       0.90303021       0.52136500      18.82689179 
H       7.44909588       0.52136500      18.82689179 
