49
Lattice="8.267761186209963 0.0 0.0 4.133880593104982 7.160091219680793 0.0 0.0 0.0 23.000798320623197" Properties=species:S:1:pos:R:3 pbc="T T T"
Pt       8.26776119       1.59113138       7.00000000 
Pt       2.75592040       1.59113138       7.00000000 
Pt       5.51184079       1.59113138       7.00000000 
Pt       9.64572138       3.97782846       7.00000000 
Pt       4.13388059       3.97782846       7.00000000 
Pt       6.88980099       3.97782846       7.00000000 
Pt      11.02368158       6.36452553       7.00000000 
Pt       5.51184079       6.36452553       7.00000000 
Pt       8.26776119       6.36452553       7.00000000 
Pt       0.00000000       0.00000000       9.25019958 
Pt       2.75592040       0.00000000       9.25019958 
Pt       5.51184079       0.00000000       9.25019958 
Pt       1.37796020       2.38669707       9.25019958 
Pt       4.13388059       2.38669707       9.25019958 
Pt       6.88980099       2.38669707       9.25019958 
Pt       2.75592040       4.77339415       9.25019958 
Pt       5.51184079       4.77339415       9.25019958 
Pt       8.26776119       4.77339415       9.25019958 
Pt       1.37451172       0.79357471      11.61354048 
Pt       4.13388059       0.79632043      11.59111453 
Pt       6.89324946       0.79357471      11.61354048 
Pt       2.75657402       3.18188539      11.59111453 
Pt       5.51118716       3.18188539      11.59111453 
Pt       8.26776119       3.17802052      11.58776556 
Pt       4.13388059       5.57294179      11.61354048 
Pt       6.88612709       5.57108096      11.58776556 
Pt       9.64939528       5.57108096      11.58776556 
Pt       0.00000000       0.00000000      16.76113073 
Pt       2.76840405       0.00023722      16.51678406 
Pt       5.49935714       0.00023722      16.51678406 
Pt       1.38440746       2.39738962      16.51678406 
Pt       4.13388059       2.38669707      16.51615433 
Pt       6.88335372       2.39738962      16.51678406 
Pt       2.74988401       4.76246438      16.51678406 
Pt       5.51787718       4.76246438      16.51678406 
Pt       8.26776119       4.77339415      16.50276479 
Au       8.26776119       1.58571178      14.09578633 
Au       2.75457743       1.59035602      14.05189754 
Au       5.51318376       1.59035602      14.05189754 
Au       9.64465978       3.97844137      14.03142781 
Au       4.13388059       3.97937918      14.05189754 
Au       6.89086260       3.97844137      14.03142781 
Au      11.02837509       6.36723533      14.09578633 
Au       5.50714728       6.36723533      14.09578633 
Au       8.26776119       6.36329969      14.03142781 
C       0.00000000       0.00000000      18.81912524 
H       4.13388059       6.11475497      19.14883457 
H       0.90528729       0.52266813      19.14883457 
H       7.36247389       0.52266813      19.14883457 
