49
Lattice="8.605220826463434 0.0 0.0 4.302610413231717 7.452339840892254 0.0 0.0 0.0 23.36817784391394" Properties=species:S:1:pos:R:3 pbc="T T T"
Pt       8.60522083       1.65607552       7.00000000 
Pt       2.86840694       1.65607552       7.00000000 
Pt       5.73681388       1.65607552       7.00000000 
Pt      10.03942430       4.14018880       7.00000000 
Pt       4.30261041       4.14018880       7.00000000 
Pt       7.17101736       4.14018880       7.00000000 
Pt      11.47362777       6.62430208       7.00000000 
Pt       5.73681388       6.62430208       7.00000000 
Pt       8.60522083       6.62430208       7.00000000 
Pt       0.00000000       0.00000000       9.34204446 
Pt       2.86840694       0.00000000       9.34204446 
Pt       5.73681388       0.00000000       9.34204446 
Pt       1.43420347       2.48411328       9.34204446 
Pt       4.30261041       2.48411328       9.34204446 
Pt       7.17101736       2.48411328       9.34204446 
Pt       2.86840694       4.96822656       9.34204446 
Pt       5.73681388       4.96822656       9.34204446 
Pt       8.60522083       4.96822656       9.34204446 
Pt       1.43847622       0.83050463      11.57892675 
Pt       4.30261041       0.82688333      11.59599994 
Pt       7.16674461       0.83050463      11.57892675 
Pt       2.86740718       3.31272826      11.59599994 
Pt       5.73781365       3.31272826      11.59599994 
Pt       8.60522083       3.31455250      11.60578685 
Pt       4.30261041       5.79133058      11.57892675 
Pt       7.17309708       5.79506359      11.60578685 
Pt      10.03734457       5.79506359      11.60578685 
Pt       0.00000000       0.00000000      15.97413607 
Pt       7.18169190       7.44287635      15.84188889 
Pt      10.02874975       7.44287635      15.84188889 
Pt      10.03656595       2.49808945      15.84188889 
Pt       4.30261041       2.48411328      15.82770108 
Pt       7.17387570       2.49808945      15.84188889 
Pt      11.46009487       4.96371388      15.84188889 
Pt       5.75034678       4.96371388      15.84188889 
Pt       8.60522083       4.96822656      15.84527784 
Ru       8.60522083       1.57985477      13.70399251 
Ru       2.84258672       1.64116821      13.68928655 
Ru       5.76263410       1.64116821      13.68928655 
Ru      10.05352631       4.13204700      13.70084827 
Ru       4.30261041       4.17000342      13.68928655 
Ru       7.15691535       4.13204700      13.70084827 
Ru      11.53963688       6.66241246      13.70399251 
Ru       5.67080478       6.66241246      13.70399251 
Ru       8.60522083       6.64058568      13.70084827 
C       0.00000000       0.00000000      18.07756127 
H       4.30261041       6.41298988      18.42856210 
H       0.90010301       0.51967498      18.42856210 
H       7.70511782       0.51967498      18.42856210 
