47
Lattice="8.267761186209963 0.0 0.0 4.133880593104982 7.160091219680793 0.0 0.0 0.0 23.000798320623197" Properties=species:S:1:pos:R:3 pbc="T T T"
Pt       8.26776119       1.59113138       7.00000000 
Pt       2.75592040       1.59113138       7.00000000 
Pt       5.51184079       1.59113138       7.00000000 
Pt       9.64572138       3.97782846       7.00000000 
Pt       4.13388059       3.97782846       7.00000000 
Pt       6.88980099       3.97782846       7.00000000 
Pt      11.02368158       6.36452553       7.00000000 
Pt       5.51184079       6.36452553       7.00000000 
Pt       8.26776119       6.36452553       7.00000000 
Pt       0.00000000       0.00000000       9.25019958 
Pt       2.75592040       0.00000000       9.25019958 
Pt       5.51184079       0.00000000       9.25019958 
Pt       1.37796020       2.38669707       9.25019958 
Pt       4.13388059       2.38669707       9.25019958 
Pt       6.88980099       2.38669707       9.25019958 
Pt       2.75592040       4.77339415       9.25019958 
Pt       5.51184079       4.77339415       9.25019958 
Pt       8.26776119       4.77339415       9.25019958 
Pt       1.37796020       0.79556569      11.64835845 
Pt       4.13045024       0.79732220      11.63821128 
Pt       6.89323134       0.79732220      11.63821128 
Pt       2.75572641       3.17841374      11.63821128 
Pt       5.51184079       3.18226276      11.63290480 
Pt       8.26795518       3.17841374      11.63821128 
Pt       4.13711695       5.57105235      11.63821128 
Pt       6.88656463       5.57105235      11.63821128 
Pt       9.64572138       5.56895984      11.59688249 
Pt      12.35820130       7.13501085      15.91697534 
Pt       6.93324147       7.13501085      15.91697534 
Pt       9.64572138       7.15958729      15.76906840 
Pt       9.64572138       2.43685782      15.91697534 
Pt       4.15763912       2.40041406      15.79349170 
Pt       6.86604246       2.40041406      15.79349170 
Pt      11.02324516       4.77364611      15.76906840 
Pt       5.51184079       4.74596016      15.79349170 
Pt       8.26819760       4.77364611      15.76906840 
Co       8.27342726       1.58786007      13.71615967 
Co       2.75025432       1.58786007      13.71615967 
Co       5.51184079       1.58487089      13.70249902 
Co       9.64572138       4.01410079      13.67671391 
Co       4.12845885       3.98095870      13.70249902 
Co       6.89522273       3.98095870      13.70249902 
Co      10.99226882       6.34638936      13.67671391 
Co       5.51184079       6.37106815      13.71615967 
Co       8.29917395       6.34638936      13.67671391 
C       1.37796020       0.79556569      17.05691893 
H       1.37796020       0.79556569      18.15576994 
