49
Lattice="8.605220826463434 0.0 0.0 4.302610413231717 7.452339840892254 0.0 0.0 0.0 23.36817784391394" Properties=species:S:1:pos:R:3 pbc="T T T"
Pt       8.60522083       1.65607552       7.00000000 
Pt       2.86840694       1.65607552       7.00000000 
Pt       5.73681388       1.65607552       7.00000000 
Pt      10.03942430       4.14018880       7.00000000 
Pt       4.30261041       4.14018880       7.00000000 
Pt       7.17101736       4.14018880       7.00000000 
Pt      11.47362777       6.62430208       7.00000000 
Pt       5.73681388       6.62430208       7.00000000 
Pt       8.60522083       6.62430208       7.00000000 
Pt       0.00000000       0.00000000       9.34204446 
Pt       2.86840694       0.00000000       9.34204446 
Pt       5.73681388       0.00000000       9.34204446 
Pt       1.43420347       2.48411328       9.34204446 
Pt       4.30261041       2.48411328       9.34204446 
Pt       7.17101736       2.48411328       9.34204446 
Pt       2.86840694       4.96822656       9.34204446 
Pt       5.73681388       4.96822656       9.34204446 
Pt       8.60522083       4.96822656       9.34204446 
Pt       1.43389042       0.82785702      11.56485680 
Pt       4.30261041       0.82583262      11.56140857 
Pt       7.17133040       0.82785702      11.56485680 
Pt       2.86649723       3.31325361      11.56140857 
Pt       5.73872359       3.31325361      11.56140857 
Pt       8.60522083       3.31148445      11.56290873 
Pt       4.30261041       5.79662580      11.56485680 
Pt       7.17044007       5.79659762      11.56290873 
Pt      10.04000158       5.79659762      11.56290873 
Pt       0.00000000       0.00000000      15.99750288 
Pt       7.18196391       7.44834994      15.85554719 
Pt      10.02847774       7.44834994      15.85554719 
Pt      10.04144222       2.49558823      15.85554719 
Pt       4.30261041       2.48411328      15.86003221 
Pt       7.16899943       2.49558823      15.85554719 
Pt      11.46469913       4.96074151      15.85554719 
Pt       5.74574252       4.96074151      15.85554719 
Pt       8.60522083       4.96822656      15.86868549 
Rh       8.60522083       1.61892003      13.70650359 
Rh       2.86700314       1.65526504      13.68280635 
Rh       5.73821768       1.65526504      13.68280635 
Rh      10.03750913       4.14129453      13.68473937 
Rh       4.30261041       4.14180977      13.68280635 
Rh       7.17293253       4.14129453      13.68473937 
Rh      11.50580537       6.64287983      13.70650359 
Rh       5.70463628       6.64287983      13.70650359 
Rh       8.60522083       6.62209063      13.68473937 
C       0.00000000       0.00000000      18.08491717 
H       4.30261041       6.40962175      18.42615367 
H       0.90301990       0.52135905      18.42615367 
H       7.70220093       0.52135905      18.42615367 
