47
Lattice="8.605220826463434 0.0 0.0 4.302610413231717 7.452339840892254 0.0 0.0 0.0 23.36817784391394" Properties=species:S:1:pos:R:3 pbc="T T T"
Pt       8.60522083       1.65607552       7.00000000 
Pt       2.86840694       1.65607552       7.00000000 
Pt       5.73681388       1.65607552       7.00000000 
Pt      10.03942430       4.14018880       7.00000000 
Pt       4.30261041       4.14018880       7.00000000 
Pt       7.17101736       4.14018880       7.00000000 
Pt      11.47362777       6.62430208       7.00000000 
Pt       5.73681388       6.62430208       7.00000000 
Pt       8.60522083       6.62430208       7.00000000 
Pt       0.00000000       0.00000000       9.34204446 
Pt       2.86840694       0.00000000       9.34204446 
Pt       5.73681388       0.00000000       9.34204446 
Pt       1.43420347       2.48411328       9.34204446 
Pt       4.30261041       2.48411328       9.34204446 
Pt       7.17101736       2.48411328       9.34204446 
Pt       2.86840694       4.96822656       9.34204446 
Pt       5.73681388       4.96822656       9.34204446 
Pt       8.60522083       4.96822656       9.34204446 
Pt       1.43420347       0.82803776      11.58988150 
Pt       4.30102802       0.83324879      11.59919848 
Pt       7.17259974       0.83324879      11.59919848 
Pt       2.87212863       3.30817514      11.59919848 
Pt       5.73681388       3.31215104      11.61537166 
Pt       8.60149914       3.30817514      11.59919848 
Pt       4.30791449       5.79502920      11.59919848 
Pt       7.16571328       5.79502920      11.59919848 
Pt      10.03942430       5.79626432      11.55676063 
Pt      12.90604569       7.45130895      15.99195986 
Pt       7.17280291       7.45130895      15.99195986 
Pt      10.03942430       7.44355576      15.87918007 
Pt      10.03942430       2.48617506      15.99195986 
Pt       4.32631171       2.49779723      15.88033557 
Pt       7.14731606       2.49779723      15.88033557 
Pt      11.46602053       4.97261860      15.87918007 
Pt       5.73681388       4.94085866      15.88033557 
Pt       8.61282806       4.97261860      15.87918007 
Os       8.61807261       1.64865554      13.70123389 
Os       2.85555516       1.64865554      13.70123389 
Os       5.73681388       1.62658119      13.72428694 
Os      10.03942430       4.15850745      13.69518387 
Os       4.27706758       4.15493596      13.72428694 
Os       7.19656019       4.15493596      13.72428694 
Os      11.45776335       6.61514275      13.69518387 
Os       5.73681388       6.63914204      13.70123389 
Os       8.62108525       6.61514275      13.69518387 
C       1.43420347       0.82803776      17.14650987 
H       1.43420347       0.82803776      18.24510919 
